<?xml version="1.0" encoding="UTF-8"?>

<!-- generated on 2026-01-03 13:05:31 by Eclipse SUMO netgenerate Version 1.24.0
<netgenerateConfiguration xmlns:xsi="http://www.w3.org/2001/XMLSchema-instance" xsi:noNamespaceSchemaLocation="http://sumo.dlr.de/xsd/netgenerateConfiguration.xsd">

    <random_network>
        <rand value="true"/>
        <rand.iterations value="35"/>
    </random_network>

    <output>
        <output.format value="xml"/>
        <alphanumerical-ids value="true"/>
        <output-file value="C:\Users\aless\Documents\PoliTo\polito magistrale\Tesi\Scenari_SUMO\outtest.net.xml"/>
        <prefix.junction value="JNC_"/>
        <prefix.edge value="EDG_"/>
    </output>

    <processing>
        <bidi-probability value="0.8"/>
        <random-priority value="true"/>
        <geometry.split value="true"/>
        <geometry.remove value="true"/>
        <roundabouts.guess value="true"/>
        <opposites.guess value="true"/>
        <edges.join value="true"/>
    </processing>

    <building_defaults>
        <default.lanenumber value="2"/>
        <default.priority value="5"/>
        <default-junction-type value="priority"/>
    </building_defaults>

    <junctions>
        <no-internal-links value="false"/>
        <no-turnarounds value="true"/>
        <junctions.join value="true"/>
        <junctions.join-same value="true"/>
        <junctions.corner-detail value="5"/>
        <junctions.internal-link-detail value="5"/>
        <junctions.scurve-stretch value="3"/>
    </junctions>

    <pedestrian>
        <sidewalks.guess value="true"/>
        <crossings.guess value="true"/>
    </pedestrian>

    <random_number>
        <random value="true"/>
    </random_number>

</netgenerateConfiguration>
-->

<net version="1.20" junctionCornerDetail="5" junctionLinkDetail="5" walkingareas="true" limitTurnSpeed="5.50" xmlns:xsi="http://www.w3.org/2001/XMLSchema-instance" xsi:noNamespaceSchemaLocation="http://sumo.dlr.de/xsd/net_file.xsd">

    <location netOffset="465.60,324.40" convBoundary="0.00,0.00,1091.56,1245.96" origBoundary="-465.60,-324.40,625.96,921.56" projParameter="!"/>

    <edge id=":JNC_1_0" function="internal">
        <lane id=":JNC_1_0_0" index="0" disallow="pedestrian" speed="6.20" length="12.35" shape="484.95,330.62 481.10,330.80 479.14,332.06 479.08,334.38 480.90,337.77"/>
    </edge>
    <edge id=":JNC_1_1" function="internal">
        <lane id=":JNC_1_1_0" index="0" disallow="pedestrian" speed="13.89" length="26.02" shape="484.95,330.62 478.11,329.64 473.21,328.72 468.61,329.06 462.69,331.83"/>
        <lane id=":JNC_1_1_1" index="1" disallow="pedestrian" speed="13.89" length="26.02" shape="485.18,327.42 477.76,326.42 472.43,325.55 467.44,326.03 461.02,329.10">
            <neigh lane=":JNC_1_9_1"/>
        </lane>
    </edge>
    <edge id=":JNC_1_3" function="internal">
        <lane id=":JNC_1_3_0" index="0" disallow="pedestrian" speed="10.97" length="27.29" shape="485.18,327.42 475.92,326.01 469.40,323.30 465.63,319.31 464.60,314.04"/>
    </edge>
    <edge id=":JNC_1_4" function="internal">
        <lane id=":JNC_1_4_0" index="0" disallow="pedestrian" speed="8.84" length="13.34" shape="470.99,314.41 471.79,316.90 474.49,318.84 479.11,320.22 481.67,320.54"/>
    </edge>
    <edge id=":JNC_1_5" function="internal">
        <lane id=":JNC_1_5_0" index="0" disallow="pedestrian" speed="13.89" length="27.35" shape="470.99,314.41 471.20,321.95 472.93,326.95 476.16,331.53 480.90,337.77"/>
        <lane id=":JNC_1_5_1" index="1" disallow="pedestrian" speed="13.89" length="27.35" shape="467.80,314.23 467.98,322.40 469.77,327.85 473.19,332.84 478.28,339.61"/>
    </edge>
    <edge id=":JNC_1_7" function="internal">
        <lane id=":JNC_1_7_0" index="0" disallow="pedestrian" speed="11.75" length="16.97" shape="467.80,314.23 467.13,319.32 465.78,323.49 463.74,326.75 461.02,329.10"/>
    </edge>
    <edge id=":JNC_1_12" function="internal">
        <lane id=":JNC_1_12_0" index="0" disallow="pedestrian" speed="8.84" length="4.01" shape="481.67,320.54 485.64,321.04"/>
    </edge>
    <edge id=":JNC_1_8" function="internal">
        <lane id=":JNC_1_8_0" index="0" disallow="pedestrian" speed="9.48" length="10.84" shape="457.66,323.65 459.13,322.28 460.24,320.19 461.00,317.38 461.41,313.85"/>
    </edge>
    <edge id=":JNC_1_9" function="internal">
        <lane id=":JNC_1_9_0" index="0" disallow="pedestrian" speed="13.89" length="26.02" shape="457.66,323.65 465.10,319.99 470.88,319.20 477.04,319.98 485.64,321.04"/>
        <lane id=":JNC_1_9_1" index="1" disallow="pedestrian" speed="13.89" length="26.02" shape="459.34,326.38 466.27,323.01 471.66,322.37 477.40,323.20 485.41,324.23">
            <neigh lane=":JNC_1_1_1"/>
        </lane>
    </edge>
    <edge id=":JNC_1_11" function="internal">
        <lane id=":JNC_1_11_0" index="0" disallow="pedestrian" speed="10.67" length="24.81" shape="459.34,326.38 463.03,325.65 467.43,327.62 472.51,332.27 478.28,339.61"/>
    </edge>
    <edge id=":JNC_1_c0" function="crossing" crossingEdges="EDG_13">
        <lane id=":JNC_1_c0_0" index="0" allow="pedestrian" speed="2.78" length="6.40" width="4.00" shape="481.05,335.21 475.82,338.90" outlineShape="482.21,336.85 476.98,340.54 474.52,337.37 474.67,337.27 479.90,333.58 481.69,332.60 481.07,333.14 480.90,334.07 481.28,335.31"/>
    </edge>
    <edge id=":JNC_1_c1" function="crossing" crossingEdges="EDG_15 EDG_-15">
        <lane id=":JNC_1_c1_0" index="0" allow="pedestrian" speed="2.78" length="12.80" width="4.00" shape="483.76,319.30 482.83,332.07" outlineShape="485.76,319.45 484.83,332.21 483.03,332.21 481.78,332.53 481.07,333.14 480.92,333.96 480.84,331.92 481.77,319.15 481.78,319.05"/>
    </edge>
    <edge id=":JNC_1_c2" function="crossing" crossingEdges="EDG_11 EDG_-11">
        <lane id=":JNC_1_c2_0" index="0" allow="pedestrian" speed="2.78" length="12.80" width="4.00" shape="459.69,315.76 472.47,316.50" outlineShape="459.81,313.76 472.59,314.51 472.89,315.74 473.95,316.82 474.99,317.34 472.35,318.50 459.58,317.75 459.31,317.74 459.61,315.92"/>
    </edge>
    <edge id=":JNC_1_c3" function="crossing" crossingEdges="EDG_3 EDG_-3">
        <lane id=":JNC_1_c3_0" index="0" allow="pedestrian" speed="2.78" length="12.80" width="4.00" shape="465.24,332.14 458.52,321.24" outlineShape="463.53,333.19 456.82,322.29 456.76,322.21 457.62,321.61 458.30,320.63 458.86,319.36 459.12,318.41 467.82,332.51 467.59,332.43 465.51,332.41"/>
    </edge>
    <edge id=":JNC_1_w0" function="walkingarea">
        <lane id=":JNC_1_w0_0" index="0" allow="pedestrian" speed="2.78" length="3.34" width="4.00" shape="482.21,336.85 483.84,335.70 484.68,334.21 484.83,332.21 483.03,332.21 481.78,332.53 481.07,333.14 480.90,334.07 481.28,335.31"/>
    </edge>
    <edge id=":JNC_1_w1" function="walkingarea">
        <lane id=":JNC_1_w1_0" index="0" allow="pedestrian" speed="2.78" length="8.95" width="4.00" shape="485.76,319.45 485.90,317.45 474.58,314.62 472.59,314.51 472.89,315.74 473.95,316.82 475.76,317.72 478.34,318.46 481.67,319.04"/>
    </edge>
    <edge id=":JNC_1_w2" function="walkingarea">
        <lane id=":JNC_1_w2_0" index="0" allow="pedestrian" speed="2.78" length="5.40" width="4.00" shape="459.81,313.76 457.81,313.64 455.77,320.59 456.82,322.29 457.62,321.61 458.30,320.63 458.86,319.36 459.30,317.79 459.61,315.92"/>
    </edge>
    <edge id=":JNC_1_w3" function="walkingarea">
        <lane id=":JNC_1_w3_0" index="0" allow="pedestrian" speed="2.78" length="9.18" width="4.00" shape="463.53,333.19 464.58,334.89 476.98,340.54 474.47,337.30 472.07,334.87 469.77,333.25 467.59,332.43 465.51,332.41"/>
    </edge>
    <edge id=":JNC_10_0" function="internal">
        <lane id=":JNC_10_0_0" index="0" disallow="pedestrian" speed="9.68" length="21.57" shape="465.51,177.84 471.33,178.91 475.38,181.60 477.66,185.89 478.15,191.80"/>
        <lane id=":JNC_10_0_1" index="1" disallow="pedestrian" speed="8.49" length="16.34" shape="465.38,181.03 469.79,181.85 472.86,183.88 474.58,187.14 474.96,191.61"/>
    </edge>
    <edge id=":JNC_10_2" function="internal">
        <lane id=":JNC_10_2_0" index="0" disallow="pedestrian" speed="5.36" length="5.88" shape="468.57,191.24 468.43,189.63 467.81,188.45 466.71,187.72 465.12,187.43"/>
        <lane id=":JNC_10_2_1" index="1" disallow="pedestrian" speed="7.10" length="11.11" shape="471.76,191.42 471.51,188.38 470.34,186.17 468.25,184.79 465.25,184.23"/>
    </edge>
    <edge id=":JNC_10_c0" function="crossing" crossingEdges="EDG_-81 EDG_81">
        <lane id=":JNC_10_c0_0" index="0" allow="pedestrian" speed="2.78" length="12.80" width="4.00" shape="467.06,189.11 467.57,176.32" outlineShape="465.06,189.03 465.57,176.24 469.63,174.76 465.65,174.24 465.58,176.14 469.57,176.40 469.05,189.19 466.97,191.14 466.95,190.52 466.81,190.00 466.55,189.60 466.17,189.30 465.68,189.11"/>
    </edge>
    <edge id=":JNC_10_w0" function="walkingarea">
        <lane id=":JNC_10_w0_0" index="0" allow="pedestrian" speed="2.78" length="15.08" width="4.00" shape="479.75,191.89 481.75,192.01 481.58,186.77 480.40,182.44 478.22,179.03 475.04,176.52 470.85,174.92 465.65,174.24 465.57,176.24 470.15,176.84 473.84,178.25 476.65,180.45 478.57,183.46 479.60,187.28"/>
    </edge>
    <edge id=":JNC_10_w1" function="walkingarea">
        <lane id=":JNC_10_w1_0" index="0" allow="pedestrian" speed="2.78" length="1.97" width="4.00" shape="465.06,189.03 464.98,191.03 466.97,191.14 466.95,190.52 466.81,190.00 466.55,189.60 466.17,189.30 465.68,189.11"/>
    </edge>
    <edge id=":JNC_101_0" function="internal">
        <lane id=":JNC_101_0_0" index="0" disallow="pedestrian" speed="13.89" length="37.63" shape="505.73,955.65 496.25,950.42 489.50,943.99 485.49,936.38 484.22,927.59"/>
        <lane id=":JNC_101_0_1" index="1" disallow="pedestrian" speed="13.89" length="33.85" shape="506.99,952.71 498.36,947.98 492.23,942.22 488.58,935.43 487.42,927.62"/>
    </edge>
    <edge id=":JNC_101_2" function="internal">
        <lane id=":JNC_101_2_0" index="0" disallow="pedestrian" speed="8.66" length="26.00" shape="506.99,952.71 501.24,948.46 499.22,942.97 500.97,937.39 506.51,932.86"/>
    </edge>
    <edge id=":JNC_101_3" function="internal">
        <lane id=":JNC_101_3_0" index="0" disallow="pedestrian" speed="6.21" length="1.05" shape="509.30,938.62 508.42,939.18"/>
    </edge>
    <edge id=":JNC_101_4" function="internal">
        <lane id=":JNC_101_4_0" index="0" disallow="pedestrian" speed="10.59" length="34.69" shape="509.30,938.62 499.59,941.84 491.57,941.31 486.15,936.67 484.22,927.59"/>
        <lane id=":JNC_101_4_1" index="1" disallow="pedestrian" speed="9.54" length="27.89" shape="507.91,935.74 500.04,938.45 493.49,938.28 489.02,934.81 487.42,927.62"/>
    </edge>
    <edge id=":JNC_101_9" function="internal">
        <lane id=":JNC_101_9_0" index="0" disallow="pedestrian" speed="6.21" length="11.52" shape="508.42,939.18 505.98,940.75 504.91,942.83 506.08,944.85 509.50,946.83"/>
    </edge>
    <edge id=":JNC_101_6" function="internal">
        <lane id=":JNC_101_6_0" index="0" disallow="pedestrian" speed="7.04" length="14.56" shape="493.82,927.69 494.50,930.76 496.60,932.17 500.14,931.91 505.11,929.98"/>
    </edge>
    <edge id=":JNC_101_7" function="internal">
        <lane id=":JNC_101_7_0" index="0" disallow="pedestrian" speed="12.74" length="26.29" shape="493.82,927.69 494.75,933.52 497.68,938.66 502.59,943.09 509.50,946.83"/>
        <lane id=":JNC_101_7_1" index="1" disallow="pedestrian" speed="13.61" length="30.07" shape="490.62,927.65 491.67,934.48 494.95,940.44 500.48,945.53 508.24,949.77"/>
    </edge>
    <edge id=":JNC_101_c0" function="crossing" crossingEdges="EDG_210 EDG_-210">
        <lane id=":JNC_101_c0_0" index="0" allow="pedestrian" speed="2.78" length="12.80" width="4.00" shape="508.29,944.57 503.26,956.34" outlineShape="510.17,945.26 506.08,954.82 500.74,957.14 504.31,958.96 505.10,957.12 504.96,957.05 501.42,955.55 506.45,943.78 507.43,942.00 507.17,942.77 507.51,943.65 508.50,944.51"/>
    </edge>
    <edge id=":JNC_101_c1" function="crossing" crossingEdges="EDG_208 EDG_-208">
        <lane id=":JNC_101_c1_0" index="0" allow="pedestrian" speed="2.78" length="12.80" width="4.00" shape="502.61,929.42 508.20,940.93" outlineShape="504.41,928.54 510.00,940.06 508.41,940.98 507.47,941.88 507.17,942.77 507.46,943.53 506.41,941.80 500.81,930.29 500.68,930.02 501.65,929.74"/>
    </edge>
    <edge id=":JNC_101_c2" function="crossing" crossingEdges="EDG_-102 EDG_102">
        <lane id=":JNC_101_c2_0" index="0" allow="pedestrian" speed="2.78" length="12.80" width="4.00" shape="482.60,929.57 495.40,929.70" outlineShape="482.62,927.57 495.42,927.70 495.66,929.18 496.40,930.12 497.64,930.53 495.38,931.70 482.58,931.57 482.98,931.57"/>
    </edge>
    <edge id=":JNC_101_w0" function="walkingarea">
        <lane id=":JNC_101_w0_0" index="0" allow="pedestrian" speed="2.78" length="24.76" width="4.00" shape="482.62,927.57 480.62,927.55 481.22,934.31 483.16,940.46 486.43,946.00 491.05,950.93 497.01,955.25 504.31,958.96 505.10,957.12 498.17,953.61 492.52,949.53 488.14,944.88 485.03,939.68 483.19,933.91"/>
    </edge>
    <edge id=":JNC_101_w1" function="walkingarea">
        <lane id=":JNC_101_w1_0" index="0" allow="pedestrian" speed="2.78" length="3.33" width="4.00" shape="510.13,945.35 510.92,943.52 510.88,941.85 510.00,940.06 508.41,940.98 507.47,941.88 507.17,942.77 507.51,943.65 508.50,944.51"/>
    </edge>
    <edge id=":JNC_101_w2" function="walkingarea">
        <lane id=":JNC_101_w2_0" index="0" allow="pedestrian" speed="2.78" length="5.74" width="4.00" shape="504.41,928.54 503.53,926.74 497.42,927.73 495.42,927.70 495.66,929.18 496.40,930.12 497.64,930.53 499.39,930.40 501.65,929.74"/>
    </edge>
    <edge id=":JNC_117_0" function="internal">
        <lane id=":JNC_117_0_0" index="0" disallow="pedestrian" speed="6.87" length="7.65" shape="618.97,602.89 616.27,599.79 613.73,598.31 613.14,598.35"/>
        <lane id=":JNC_117_0_1" index="1" disallow="pedestrian" speed="8.30" length="14.42" shape="621.58,601.04 617.65,596.64 613.85,594.70 610.19,595.23 609.76,595.60"/>
    </edge>
    <edge id=":JNC_117_2" function="internal">
        <lane id=":JNC_117_2_0" index="0" disallow="pedestrian" speed="9.12" length="25.70" shape="621.58,601.04 618.02,594.26 618.11,589.07 621.85,585.46 629.23,583.44"/>
    </edge>
    <edge id=":JNC_117_9" function="internal">
        <lane id=":JNC_117_9_0" index="0" disallow="pedestrian" speed="6.87" length="4.63" shape="613.14,598.35 611.35,598.47 609.14,600.25"/>
        <lane id=":JNC_117_9_1" index="0" disallow="pedestrian" speed="8.30" length="4.07" shape="609.76,595.60 606.67,598.23"/>
    </edge>
    <edge id=":JNC_117_3" function="internal">
        <lane id=":JNC_117_3_0" index="0" disallow="pedestrian" speed="6.18" length="11.02" shape="630.08,589.78 626.91,590.65 625.31,592.20 625.27,594.43 626.80,597.33"/>
    </edge>
    <edge id=":JNC_117_4" function="internal">
        <lane id=":JNC_117_4_0" index="0" disallow="pedestrian" speed="13.89" length="28.06" shape="630.08,589.78 622.96,590.80 618.04,592.20 613.91,595.01 609.14,600.25"/>
        <lane id=":JNC_117_4_1" index="1" disallow="pedestrian" speed="13.89" length="28.06" shape="629.66,586.61 621.82,587.74 616.43,589.32 611.90,592.45 606.67,598.23">
            <neigh lane=":JNC_117_6_1"/>
        </lane>
    </edge>
    <edge id=":JNC_117_6" function="internal">
        <lane id=":JNC_117_6_0" index="0" disallow="pedestrian" speed="13.89" length="28.06" shape="601.71,594.18 607.85,587.39 613.24,583.61 619.64,581.65 628.81,580.27"/>
        <lane id=":JNC_117_6_1" index="1" disallow="pedestrian" speed="13.89" length="28.06" shape="604.19,596.21 609.89,589.88 614.82,586.44 620.69,584.69 629.23,583.44">
            <neigh lane=":JNC_117_4_1"/>
        </lane>
    </edge>
    <edge id=":JNC_117_8" function="internal">
        <lane id=":JNC_117_8_0" index="0" disallow="pedestrian" speed="9.52" length="24.72" shape="604.19,596.21 609.02,592.00 613.97,591.10 619.02,593.49 624.19,599.19"/>
    </edge>
    <edge id=":JNC_117_c0" function="crossing" crossingEdges="EDG_-164 EDG_164">
        <lane id=":JNC_117_c0_0" index="0" allow="pedestrian" speed="2.78" length="12.80" width="4.00" shape="626.94,594.78 616.51,602.19" outlineShape="628.10,596.41 617.67,603.82 616.25,602.05 614.96,600.84 615.35,600.56 625.78,593.15 627.71,592.24 627.11,592.98 626.98,593.92 627.31,595.06"/>
    </edge>
    <edge id=":JNC_117_c1" function="crossing" crossingEdges="EDG_211 EDG_-211">
        <lane id=":JNC_117_c1_0" index="0" allow="pedestrian" speed="2.78" length="12.80" width="4.00" shape="626.62,578.95 628.31,591.63" outlineShape="628.60,578.68 630.29,591.37 628.77,591.70 627.71,592.24 627.11,592.98 626.98,593.92 626.33,591.90 624.63,579.21"/>
    </edge>
    <edge id=":JNC_117_c2" function="crossing" crossingEdges="EDG_-118 EDG_118">
        <lane id=":JNC_117_c2_0" index="0" allow="pedestrian" speed="2.78" length="12.80" width="4.00" shape="611.65,599.72 601.73,591.62" outlineShape="610.38,601.27 600.47,593.17 601.75,589.05 598.92,591.91 600.47,593.17 603.00,590.07 612.91,598.17 613.99,600.29 613.67,600.11 612.49,599.96 611.40,600.34"/>
    </edge>
    <edge id=":JNC_117_w0" function="walkingarea">
        <lane id=":JNC_117_w0_0" index="0" allow="pedestrian" speed="2.78" length="4.75" width="4.00" shape="610.38,601.27 611.93,602.53 616.04,604.98 617.67,603.82 616.25,602.05 614.92,600.81 613.67,600.11 612.49,599.96 611.40,600.34"/>
    </edge>
    <edge id=":JNC_117_w1" function="walkingarea">
        <lane id=":JNC_117_w1_0" index="0" allow="pedestrian" speed="2.78" length="3.36" width="4.00" shape="628.10,596.41 629.73,595.25 630.56,593.35 630.29,591.37 628.77,591.70 627.71,592.24 627.11,592.98 626.98,593.92 627.31,595.06"/>
    </edge>
    <edge id=":JNC_117_w2" function="walkingarea">
        <lane id=":JNC_117_w2_0" index="0" allow="pedestrian" speed="2.78" length="20.85" width="4.00" shape="628.60,578.68 628.33,576.70 623.15,577.75 617.71,579.51 612.28,581.89 607.15,584.81 602.61,588.18 598.92,591.91 600.47,593.17 604.94,587.99 608.72,584.43 612.40,582.12 616.56,580.65 621.76,579.63"/>
    </edge>
    <edge id=":JNC_12_0" function="internal">
        <lane id=":JNC_12_0_0" index="0" disallow="pedestrian" speed="6.19" length="7.92" shape="558.71,448.15 561.20,450.90 563.39,451.61 564.95,450.51"/>
        <lane id=":JNC_12_0_1" index="1" disallow="pedestrian" speed="7.08" length="12.20" shape="558.71,448.15 562.26,452.19 565.31,453.49 567.85,452.06 568.11,451.53"/>
    </edge>
    <edge id=":JNC_12_2" function="internal">
        <lane id=":JNC_12_2_0" index="0" disallow="pedestrian" speed="10.51" length="30.59" shape="558.71,448.15 563.87,456.43 566.41,463.69 565.25,469.53 559.32,473.59"/>
        <lane id=":JNC_12_2_1" index="1" disallow="pedestrian" speed="9.41" length="24.30" shape="556.09,450.00 560.38,456.77 562.75,462.73 562.33,467.46 558.26,470.57"/>
    </edge>
    <edge id=":JNC_12_4" function="internal">
        <lane id=":JNC_12_4_0" index="0" disallow="pedestrian" speed="6.19" length="4.11" shape="564.95,450.51 565.27,450.28 566.84,446.92"/>
        <lane id=":JNC_12_4_1" index="0" disallow="pedestrian" speed="7.08" length="4.04" shape="568.11,451.53 569.89,447.90"/>
    </edge>
    <edge id=":JNC_12_c0" function="crossing" crossingEdges="EDG_21">
        <lane id=":JNC_12_c0_0" index="0" allow="pedestrian" speed="2.78" length="6.40" width="4.00" shape="564.70,448.33 570.79,450.29" outlineShape="565.32,446.43 571.41,448.39 572.04,452.80 573.31,449.01 571.50,448.42 570.18,452.20 564.09,450.23 562.23,449.34 563.07,449.48 563.91,449.05 564.66,448.04"/>
    </edge>
    <edge id=":JNC_12_w0" function="walkingarea">
        <lane id=":JNC_12_w0_0" index="0" allow="pedestrian" speed="2.78" length="3.34" width="4.00" shape="565.32,446.43 563.41,445.81 561.65,446.08 560.01,447.23 561.12,448.57 562.14,449.32 563.07,449.48 563.91,449.05 564.66,448.04"/>
    </edge>
    <edge id=":JNC_12_w1" function="walkingarea">
        <lane id=":JNC_12_w1_0" index="0" allow="pedestrian" speed="2.78" length="27.85" width="4.00" shape="559.84,475.10 560.50,476.99 562.04,475.80 563.82,473.22 565.83,469.25 568.09,463.89 570.58,457.14 573.31,449.01 571.41,448.39 568.80,456.23 566.46,462.72 564.39,467.84 562.60,471.62 561.09,474.04"/>
    </edge>
    <edge id=":JNC_14_0" function="internal">
        <lane id=":JNC_14_0_0" index="0" disallow="pedestrian" speed="6.29" length="5.61" shape="599.62,345.37 600.09,342.60 599.49,340.55 598.97,340.14"/>
        <lane id=":JNC_14_0_1" index="1" disallow="pedestrian" speed="7.83" length="11.97" shape="602.66,346.36 603.43,341.87 602.46,338.55 599.75,336.41 599.25,336.30"/>
    </edge>
    <edge id=":JNC_14_2" function="internal">
        <lane id=":JNC_14_2_0" index="0" disallow="pedestrian" speed="6.29" length="4.28" shape="598.97,340.14 597.82,339.23 595.07,338.63"/>
        <lane id=":JNC_14_2_1" index="0" disallow="pedestrian" speed="7.83" length="4.04" shape="599.25,336.30 595.31,335.44"/>
    </edge>
    <edge id=":JNC_14_c0" function="crossing" crossingEdges="EDG_-15 EDG_15">
        <lane id=":JNC_14_c0_0" index="0" allow="pedestrian" speed="2.78" length="12.80" width="4.00" shape="596.95,340.37 597.88,327.60" outlineShape="594.96,340.23 595.89,327.46 599.88,327.75 598.95,340.52 598.37,342.52 598.01,341.55 597.32,340.89 596.30,340.45"/>
    </edge>
    <edge id=":JNC_14_w0" function="walkingarea">
        <lane id=":JNC_14_w0_0" index="0" allow="pedestrian" speed="2.78" length="2.24" width="4.00" shape="596.03,325.46 595.89,327.46 599.88,327.75"/>
    </edge>
    <edge id=":JNC_14_w1" function="walkingarea">
        <lane id=":JNC_14_w1_0" index="0" allow="pedestrian" speed="2.78" length="3.50" width="4.00" shape="594.96,340.23 594.81,342.22 596.19,344.27 598.10,344.88 598.40,343.55 598.37,342.44 598.01,341.55 597.32,340.89 596.30,340.45"/>
    </edge>
    <edge id=":JNC_155_0" function="internal">
        <lane id=":JNC_155_0_0" index="0" disallow="pedestrian" speed="13.89" length="17.48" shape="641.15,866.06 638.21,871.33 636.05,875.01 633.18,877.92 628.12,880.86"/>
        <lane id=":JNC_155_0_1" index="1" disallow="pedestrian" speed="13.89" length="17.48" shape="638.41,864.40 635.76,869.21 633.85,872.60 631.30,875.29 626.72,877.98">
            <neigh lane=":JNC_155_4_1"/>
        </lane>
    </edge>
    <edge id=":JNC_155_2" function="internal">
        <lane id=":JNC_155_2_0" index="0" disallow="pedestrian" speed="6.29" length="9.86" shape="624.87,862.10 627.13,863.76 629.23,864.14 631.16,863.25 632.94,861.09"/>
    </edge>
    <edge id=":JNC_155_3" function="internal">
        <lane id=":JNC_155_3_0" index="0" disallow="pedestrian" speed="7.75" length="16.70" shape="622.63,864.38 626.87,869.14 628.96,873.00 628.91,875.94 626.72,877.98"/>
    </edge>
    <edge id=":JNC_155_4" function="internal">
        <lane id=":JNC_155_4_0" index="0" disallow="pedestrian" speed="13.89" length="17.48" shape="623.92,872.23 627.53,870.03 629.46,867.78 630.87,864.97 632.94,861.09"/>
        <lane id=":JNC_155_4_1" index="1" disallow="pedestrian" speed="13.89" length="17.48" shape="625.32,875.11 629.41,872.66 631.65,870.19 633.32,867.09 635.68,862.75">
            <neigh lane=":JNC_155_0_1"/>
        </lane>
    </edge>
    <edge id=":JNC_155_c0" function="crossing" crossingEdges="EDG_-165 EDG_165">
        <lane id=":JNC_155_c0_0" index="0" allow="pedestrian" speed="2.78" length="12.80" width="4.00" shape="630.53,861.97 641.48,868.60" outlineShape="631.57,860.26 642.52,866.89 640.53,870.36 640.45,870.31 629.50,863.68 627.97,862.25 629.00,862.37 629.91,862.06 630.76,861.35"/>
    </edge>
    <edge id=":JNC_155_c1" function="crossing" crossingEdges="EDG_156">
        <lane id=":JNC_155_c1_0" index="0" allow="pedestrian" speed="2.78" length="6.40" width="4.00" shape="622.94,866.93 627.42,862.36" outlineShape="621.51,865.53 626.00,860.96 627.05,861.82 628.05,862.29 629.00,862.37 629.91,862.06 628.85,863.76 624.36,868.33 623.95,868.75 623.55,867.92 622.71,866.80"/>
    </edge>
    <edge id=":JNC_155_c2" function="crossing" crossingEdges="EDG_-208 EDG_208">
        <lane id=":JNC_155_c2_0" index="0" allow="pedestrian" speed="2.78" length="12.80" width="4.00" shape="630.62,881.43 625.02,869.92" outlineShape="628.82,882.30 623.22,870.79 623.85,870.31 624.12,869.68 624.02,868.88 623.74,868.32 626.82,869.04 632.42,880.55 632.34,880.39"/>
    </edge>
    <edge id=":JNC_155_w0" function="walkingarea">
        <lane id=":JNC_155_w0_0" index="0" allow="pedestrian" speed="2.78" length="13.41" width="4.00" shape="628.82,882.30 629.69,884.10 633.53,881.98 636.31,879.87 638.39,877.58 640.16,874.95 641.98,871.79 644.23,867.93 642.52,866.89 640.29,870.78 638.65,873.80 637.14,876.21 635.31,878.26 632.68,880.21"/>
    </edge>
    <edge id=":JNC_155_w1" function="walkingarea">
        <lane id=":JNC_155_w1_0" index="0" allow="pedestrian" speed="2.78" length="3.35" width="4.00" shape="631.57,860.26 629.86,859.22 627.40,859.53 626.00,860.96 627.05,861.82 628.05,862.29 629.00,862.37 629.91,862.06 630.76,861.35"/>
    </edge>
    <edge id=":JNC_155_w2" function="walkingarea">
        <lane id=":JNC_155_w2_0" index="0" allow="pedestrian" speed="2.78" length="2.95" width="4.00" shape="621.51,865.53 622.35,868.99 623.22,870.79 623.85,870.31 624.12,869.68 624.02,868.88 623.55,867.92 622.71,866.80"/>
    </edge>
    <edge id=":JNC_16_0" function="internal">
        <lane id=":JNC_16_0_0" index="0" disallow="pedestrian" speed="6.24" length="1.27" shape="208.76,581.93 208.41,583.14"/>
    </edge>
    <edge id=":JNC_16_1" function="internal">
        <lane id=":JNC_16_1_0" index="0" disallow="pedestrian" speed="13.89" length="12.93" shape="208.76,581.93 207.53,585.78 207.10,588.58 206.50,591.30 204.73,594.88"/>
        <lane id=":JNC_16_1_1" index="1" disallow="pedestrian" speed="13.89" length="12.93" shape="205.81,580.69 204.63,584.40 204.25,587.12 203.70,589.74 202.01,593.20">
            <neigh lane=":JNC_16_3_1"/>
        </lane>
    </edge>
    <edge id=":JNC_16_6" function="internal">
        <lane id=":JNC_16_6_0" index="0" disallow="pedestrian" speed="6.24" length="11.70" shape="208.41,583.14 207.61,585.88 208.18,588.18 210.46,588.83 214.45,587.83"/>
    </edge>
    <edge id=":JNC_16_3" function="internal">
        <lane id=":JNC_16_3_0" index="0" disallow="pedestrian" speed="13.89" length="12.93" shape="196.56,589.84 198.09,586.64 198.55,584.18 198.85,581.65 199.91,578.21"/>
        <lane id=":JNC_16_3_1" index="1" disallow="pedestrian" speed="13.89" length="12.93" shape="199.29,591.52 200.89,588.19 201.40,585.65 201.74,583.03 202.86,579.45">
            <neigh lane=":JNC_16_1_1"/>
        </lane>
    </edge>
    <edge id=":JNC_16_5" function="internal">
        <lane id=":JNC_16_5_0" index="0" disallow="pedestrian" speed="13.89" length="1.81" shape="199.29,591.52 200.69,590.39"/>
    </edge>
    <edge id=":JNC_16_7" function="internal">
        <lane id=":JNC_16_7_0" index="0" disallow="pedestrian" speed="13.89" length="15.76" shape="200.69,590.39 202.56,588.89 206.17,589.65 210.41,591.17 215.57,590.83"/>
    </edge>
    <edge id=":JNC_16_c0" function="crossing" crossingEdges="EDG_25">
        <lane id=":JNC_16_c0_0" index="0" allow="pedestrian" speed="2.78" length="6.40" width="4.00" shape="212.01,587.04 214.27,593.03" outlineShape="213.88,586.33 216.14,592.32 212.58,594.22 216.14,592.32 212.39,593.73 210.14,587.74 209.56,585.82 209.86,586.56 210.72,586.95 212.06,586.88"/>
    </edge>
    <edge id=":JNC_16_c1" function="crossing" crossingEdges="EDG_-17 EDG_17">
        <lane id=":JNC_16_c1_0" index="0" allow="pedestrian" speed="2.78" length="12.80" width="4.00" shape="197.66,579.43 209.46,584.39" outlineShape="198.44,577.59 210.24,582.55 209.63,584.35 209.50,585.69 209.86,586.56 210.59,586.89 208.69,586.23 196.89,581.27 197.34,581.46 197.62,579.98"/>
    </edge>
    <edge id=":JNC_16_c2" function="crossing" crossingEdges="EDG_27 EDG_-27">
        <lane id=":JNC_16_c2_0" index="0" allow="pedestrian" speed="2.78" length="12.80" width="4.00" shape="207.15,594.02 196.25,587.30" outlineShape="206.10,595.72 195.20,589.00 196.36,586.78 196.82,585.31 209.54,593.14 208.83,593.25 207.46,594.03"/>
    </edge>
    <edge id=":JNC_16_w0" function="walkingarea">
        <lane id=":JNC_16_w0_0" index="0" allow="pedestrian" speed="2.78" length="3.32" width="4.00" shape="213.88,586.33 213.18,584.46 212.08,583.32 210.24,582.55 209.63,584.35 209.50,585.69 209.86,586.56 210.72,586.95 212.06,586.88"/>
    </edge>
    <edge id=":JNC_16_w1" function="walkingarea">
        <lane id=":JNC_16_w1_0" index="0" allow="pedestrian" speed="2.78" length="7.33" width="4.00" shape="198.44,577.59 196.60,576.81 193.50,587.96 195.20,589.00 196.36,586.78 196.91,585.01 197.12,583.45 197.27,581.86 197.62,579.98"/>
    </edge>
    <edge id=":JNC_16_w2" function="walkingarea">
        <lane id=":JNC_16_w2_0" index="0" allow="pedestrian" speed="2.78" length="5.81" width="4.00" shape="206.10,595.72 207.80,596.77 216.14,592.32 213.86,592.91 211.95,593.03 210.30,593.03 208.83,593.25 207.46,594.03"/>
    </edge>
    <edge id=":JNC_172_0" function="internal">
        <lane id=":JNC_172_0_0" index="0" disallow="pedestrian" speed="6.24" length="1.30" shape="829.43,580.61 828.99,579.39"/>
    </edge>
    <edge id=":JNC_172_1" function="internal">
        <lane id=":JNC_172_1_0" index="0" disallow="pedestrian" speed="12.30" length="28.29" shape="832.55,579.88 829.36,571.40 824.42,565.70 817.73,562.78 813.34,562.70"/>
    </edge>
    <edge id=":JNC_172_2" function="internal">
        <lane id=":JNC_172_2_0" index="0" disallow="pedestrian" speed="12.19" length="29.91" shape="832.55,579.88 830.92,569.77 831.33,561.88 833.76,556.23 838.21,552.81"/>
    </edge>
    <edge id=":JNC_172_10" function="internal">